# generated using pymatgen
data_LiCoO2
_symmetry_space_group_name_H-M   'P 1'
_cell_length_a   3.85567000
_cell_length_b   3.85567000
_cell_length_c   8.02519000
_cell_angle_alpha   90.00000000
_cell_angle_beta   90.00000000
_cell_angle_gamma   90.00000000
_symmetry_Int_Tables_number   1
_chemical_formula_structural   LiCoO2
_chemical_formula_sum   'Li2 Co2 O4'
_cell_volume   119.30400855
_cell_formula_units_Z   2
loop_
 _symmetry_equiv_pos_site_id
 _symmetry_equiv_pos_as_xyz
  1  'x, y, z'
loop_
 _atom_site_type_symbol
 _atom_site_label
 _atom_site_symmetry_multiplicity
 _atom_site_fract_x
 _atom_site_fract_y
 _atom_site_fract_z
 _atom_site_occupancy
  Li  Li0  1  0.00000000  0.50000000  0.84053300  1.0
  Li  Li1  1  0.50000000  0.00000000  0.15946700  1.0
  Co  Co2  1  0.00000000  0.50000000  0.40776300  1.0
  Co  Co3  1  0.50000000  0.00000000  0.59223700  1.0
  O  O4  1  0.00000000  0.00000000  0.50000000  1.0
  O  O5  1  0.50000000  0.50000000  0.50000000  1.0
  O  O6  1  0.00000000  0.50000000  0.19080700  1.0
  O  O7  1  0.50000000  0.00000000  0.80919300  1.0
